src/test/resources/bpafiles/fj/2012年年大方式20111103.lis

SCCPC 短路电流计算程序  版本 1.1.4  发布时间 Mar  3 2011 09:06:43

Wall clock : Wed Nov 07 01:15:01 2012

<SHORT_CURRENT_SCAN_RESULT>
.#      母 线                 故障类型     遮断电流  短路电流 短路容量         正序等值阻抗          负序等值阻抗          零序等值阻抗   分区
.#                          1-单相/2-三相   (kA)       (kA)     (MVA)          R1+jX1 (欧姆)         R2+jX2 (欧姆)         R0+jX0 (欧姆)      
.#---------------------    --------------- --------  -------- ---------     ------------------    ------------------    ----------------- ----
"国东明__"  525.0     B      0.0     2     63.000     19.291  17541.444      2.024     15.294      1.961     14.910      9.575     36.278 "GD" 
.L/T       母线I            母线J      ID    支路电流(kA/deg)  百分数  开断短路电流(kA/deg)
.    ---------------- ---------------- ---  -----------------  ------  --------------------
   L "国东明__" 525.0 "国三堡_C" 525.0 "1"   4.038    112.172   0.209  15.118  112.922
   L "国东明__" 525.0 "国三堡_C" 525.0 "2"   4.021    111.830   0.208  15.136  112.914
   L "国东明__" 525.0 "国三堡_C" 525.0 "3"   4.251    111.477   0.220  14.893  113.213
   L "国东明__" 525.0 "国阳城__" 525.0 "1"   2.319    119.563   0.120  18.093  114.578
   L "国东明__" 525.0 "国阳城__" 525.0 "2"   2.174    118.490   0.113  18.184  114.552
   L "国东明__" 525.0 "国阳城__" 525.0 "3"   2.166    120.369   0.112  18.189  114.568
"国枫泾__"  525.0     B      0.0     2     63.000     25.417  23112.604      0.790     11.638      0.727     11.454      1.834     20.314 "GD" 
.L/T       母线I            母线J      ID    支路电流(kA/deg)  百分数  开断短路电流(kA/deg)
.    ---------------- ---------------- ---  -----------------  ------  --------------------
   L "国枫泾__" 525.0 "沪练塘__" 525.0 "1"  12.715     77.764   0.500  19.524   75.355
   L "国枫泾__" 525.0 "沪练塘__" 525.0 "2"  12.666     77.753   0.498  19.559   75.371
"国奉贤__"  525.0     B      0.0     2     63.000     53.812  48932.927      0.506      5.501      0.459      5.352      0.321      4.401 "GD" 
.L/T       母线I            母线J      ID    支路电流(kA/deg)  百分数  开断短路电流(kA/deg)
.    ---------------- ---------------- ---  -----------------  ------  --------------------
   L "国奉贤__" 525.0 "沪远东__" 525.0 "1"  17.125     81.772   0.318  53.178   80.452
   L "国奉贤__" 525.0 "沪远东__" 525.0 "2"  17.125     81.772   0.318  53.178   80.452
   L "国奉贤__" 525.0 "沪远东__" 525.0 "3"  19.560     82.180   0.363  53.039   80.425
"国葛南_1"  230.0     B      0.0     2     50.000     40.022  15943.639      0.494      3.385      0.465      3.314      0.094      2.123 "GD" 
.L/T       母线I            母线J      ID    支路电流(kA/deg)  百分数  开断短路电流(kA/deg)
.    ---------------- ---------------- ---  -----------------  ------  --------------------
   L "国葛南_1" 230.0 "沪南桥_2" 230.0 "1"  40.022     77.601   1.000   1.363  -21.340
"国葛南_2"  230.0     B      0.0     2     50.000     40.515  16139.962      0.498      3.343      0.469      3.272      0.094      2.103 "GD" 
.L/T       母线I            母线J      ID    支路电流(kA/deg)  百分数  开断短路电流(kA/deg)
.    ---------------- ---------------- ---  -----------------  ------  --------------------
   L "国葛南_2" 230.0 "沪南桥_3" 230.0 "1"  40.515     77.103   1.000   0.000   68.630
"国三堡_C"  525.0     B      0.0     2     63.000    241.098 219237.007      0.829     -0.906      0.783     -1.118      2.737    -13.770 "GD" 
.L/T       母线I            母线J      ID    支路电流(kA/deg)  百分数  开断短路电流(kA/deg)
.    ---------------- ---------------- ---  -----------------  ------  --------------------
   L "国三堡_C" 525.0 "国东明__" 525.0 "1"   1.583     86.079   0.007 241.559 -129.257
   L "国三堡_C" 525.0 "国东明__" 525.0 "2"   1.576     85.436   0.007 241.556 -129.257
   L "国三堡_C" 525.0 "国东明__" 525.0 "3"   1.667     85.301   0.007 241.603 -129.253
   L "国三堡_C" 525.0 "国三堡__" 525.0 "1"  80.712   -128.038   0.335  45.715  -96.032
   L "国三堡_C" 525.0 "国三堡__" 525.0 "2"  80.712   -128.038   0.335  45.715  -96.032
   L "国三堡_C" 525.0 "国三堡__" 525.0 "3"  80.712   -128.038   0.335  45.715  -96.032
"国三堡__"  525.0     B      0.0     2     63.000     38.085  34631.400      0.687      7.636      0.651      7.445      2.057     14.685 "GD" 
.L/T       母线I            母线J      ID    支路电流(kA/deg)  百分数  开断短路电流(kA/deg)
.    ---------------- ---------------- ---  -----------------  ------  --------------------
   L "国三堡__" 525.0 "国三堡_C" 525.0 "1"   2.065    115.559   0.054  38.651  103.660
   L "国三堡__" 525.0 "国三堡_C" 525.0 "2"   2.065    115.559   0.054  38.651  103.660
   L "国三堡__" 525.0 "国三堡_C" 525.0 "3"   2.065    115.559   0.054  38.651  103.660
   L "国三堡__" 525.0 "苏任庄__" 525.0 "1"  10.236    104.882   0.269  29.414  103.529
   L "国三堡__" 525.0 "苏三汊__" 525.0 "1"   2.853     98.943   0.075  35.830  103.604
   L "国三堡__" 525.0 "苏三汊__" 525.0 "2"   2.864     98.673   0.075  35.820  103.617
   L "国三堡__" 525.0 "苏双泗__" 525.0 "1"   5.562    101.189   0.146  34.442  103.433
   L "国三堡__" 525.0 "苏双泗__" 525.0 "2"   5.510    101.172   0.145  34.484  103.439
   T "国三堡__" 525.0 "苏三堡B1" 230.0 "1"   2.698    100.359   0.071  36.696  103.241
   T "国三堡__" 525.0 "苏三堡B2" 230.0 "1"   2.698    100.359   0.071  36.696  103.241
"国阳城__"  525.0     B      0.0     2     63.000     18.420  16750.052      0.955     16.663      0.815     15.410      0.191     10.122 "GD" 
.L/T       母线I            母线J      ID    支路电流(kA/deg)  百分数  开断短路电流(kA/deg)
.    ---------------- ---------------- ---  -----------------  ------  --------------------
   L "国阳城__" 525.0 "国东明__" 525.0 "1"   2.292    116.538   0.124  16.987  121.613
   L "国阳城__" 525.0 "国东明__" 525.0 "2"   2.149    116.334   0.117  17.093  121.658
   L "国阳城__" 525.0 "国东明__" 525.0 "3"   2.141    116.270   0.116  17.099  121.684
   T "国阳城__" 525.0 "国阳城_1"  21.0 "1"   1.263    127.653   0.069  17.212  122.309
   T "国阳城__" 525.0 "国阳城_2"  21.0 "1"   1.263    127.653   0.069  17.212  122.309
   T "国阳城__" 525.0 "国阳城_3"  21.0 "1"   1.246    125.151   0.068  17.212  122.309
   T "国阳城__" 525.0 "国阳城_4"  21.0 "1"   1.246    125.151   0.068  17.212  122.309
   T "国阳城__" 525.0 "国阳城_5"  21.0 "1"   1.246    125.151   0.068  17.212  122.309
   T "国阳城__" 525.0 "国阳城_6"  21.0 "1"   1.246    125.151   0.068  17.212  122.309
   T "国阳城__" 525.0 "国阳城_7"  21.0 "1"   2.230    127.771   0.121  16.414  122.454
   T "国阳城__" 525.0 "国阳城_8"  21.0 "1"   2.224    126.309   0.121  16.414  122.454
"国宜华__"  525.0     B      0.0     2     63.000     42.275  38441.408      0.748      6.930      0.715      6.862      0.694      6.779 "GD" 
.L/T       母线I            母线J      ID    支路电流(kA/deg)  百分数  开断短路电流(kA/deg)
.    ---------------- ---------------- ---  -----------------  ------  --------------------
   L "国宜华__" 525.0 "沪黄渡__" 525.0 "1"  21.346     81.183   0.505  38.406   78.803
   L "国宜华__" 525.0 "沪黄渡__" 525.0 "2"  20.922     81.148   0.495  38.543   78.847
"国政平__"  525.0     B      0.0     2     63.000     54.135  49226.574      0.651      5.388      0.612      5.302      0.963      6.887 "GD" 
.L/T       母线I            母线J      ID    支路电流(kA/deg)  百分数  开断短路电流(kA/deg)
.    ---------------- ---------------- ---  -----------------  ------  --------------------
   L "国政平__" 525.0 "苏武南__" 525.0 "1"  23.139     84.577   0.427  48.853   83.726
   L "国政平__" 525.0 "苏武南__" 525.0 "2"  23.139     84.577   0.427  48.853   83.726
   L "国政平__" 525.0 "苏岷珠__" 525.0 "1"   7.857     87.190   0.145  50.483   83.619
"沪拜耳98"  230.0     B      0.0     2     50.000     27.600  10995.124      0.733      4.805      0.687      4.670      0.351      2.905 "SH" 
.L/T       母线I            母线J      ID    支路电流(kA/deg)  百分数  开断短路电流(kA/deg)
.    ---------------- ---------------- ---  -----------------  ------  --------------------
   L "沪拜耳98" 230.0 "沪目华__" 230.0 "1"  27.598     76.116   1.000   0.054  154.327
"沪拜耳99"  230.0     B      0.0     2     50.000     27.745  11052.833      0.738      4.778      0.692      4.644      0.351      2.894 "SH" 
.L/T       母线I            母线J      ID    支路电流(kA/deg)  百分数  开断短路电流(kA/deg)
.    ---------------- ---------------- ---  -----------------  ------  --------------------
   L "沪拜耳99" 230.0 "沪目华__" 230.0 "1"  27.743     76.226   1.000   0.055  148.114
"沪宝钢Y1"  115.0     B      0.0     2     30.000     21.764   4335.009      0.098      3.023      0.080      2.670      0.112 100000.000 "SB" 
.L/T       母线I            母线J      ID    支路电流(kA/deg)  百分数  开断短路电流(kA/deg)
.    ---------------- ---------------- ---  -----------------  ------  --------------------
   L "沪宝钢Y1" 115.0 "沪宝钢Y2" 115.0 "9"  10.181     85.600   0.468  21.449   86.145
   L "沪宝钢Y1" 115.0 "沪宝钢_1" 115.0 "1"   6.979     82.985   0.321  21.617   86.056
   T "沪宝钢Y1" 115.0 "沪宝钢_1"  21.0 "1"   5.049     94.534   0.232  17.061   86.453
"沪宝钢Y2"  115.0     B      0.0     2     30.000     21.764   4335.002      0.098      3.023      0.080      2.670      0.112 100000.000 "SB" 
.L/T       母线I            母线J      ID    支路电流(kA/deg)  百分数  开断短路电流(kA/deg)
.    ---------------- ---------------- ---  -----------------  ------  --------------------
   L "沪宝钢Y2" 115.0 "沪宝钢Y1" 115.0 "9"  10.189     85.601   0.468  21.448   86.145
   L "沪宝钢Y2" 115.0 "沪宝钢_2" 115.0 "2"   6.973     82.982   0.320  21.618   86.056
   T "沪宝钢Y2" 115.0 "沪宝钢_2"  21.0 "2"   5.046     94.540   0.232  17.063   86.453
"沪宝钢_1"  115.0     B      0.0     2     30.000     21.801   4342.413      0.098      3.017      0.081      2.670      0.090 100000.000 "SB" 
.L/T       母线I            母线J      ID    支路电流(kA/deg)  百分数  开断短路电流(kA/deg)
.    ---------------- ---------------- ---  -----------------  ------  --------------------
   L "沪宝钢_1" 115.0 "沪宝钢Y1" 115.0 "1"   5.700     94.480   0.261  21.712   85.933
   L "沪宝钢_1" 115.0 "沪宝钢_2" 115.0 "9"  10.160     85.480   0.466  21.488   86.011
   T "沪宝钢_1" 115.0 "沪宝钢_1" 230.0 "1"   6.431     82.018   0.295  16.059   85.139
"沪宝钢_1"  230.0     B      0.0     2     50.000     40.498  16133.245      0.713      3.245      0.690      3.195      0.395      3.479 "SB" 
.L/T       母线I            母线J      ID    支路电流(kA/deg)  百分数  开断短路电流(kA/deg)
.    ---------------- ---------------- ---  -----------------  ------  --------------------
   L "沪宝钢_1" 230.0 "沪宝能__" 230.0 "1"  39.004     82.585   0.963   2.757   87.579
   T "沪宝钢_1" 230.0 "沪宝钢_1" 115.0 "1"   1.592     87.004   0.039  39.635   83.318
"沪宝钢_2"  115.0     B      0.0     2     30.000     21.800   4342.343      0.098      3.017      0.081      2.670      0.090 100000.000 "SB" 
.L/T       母线I            母线J      ID    支路电流(kA/deg)  百分数  开断短路电流(kA/deg)
.    ---------------- ---------------- ---  -----------------  ------  --------------------
   L "沪宝钢_2" 115.0 "沪宝钢Y2" 115.0 "2"   5.705     94.475   0.262  21.712   85.933
   L "沪宝钢_2" 115.0 "沪宝钢_1" 115.0 "9"  10.240     85.454   0.470  21.483   86.012
   T "沪宝钢_2" 115.0 "沪宝钢_2" 230.0 "2"   6.344     82.028   0.291  16.143   85.162
"沪宝钢_2"  230.0     B      0.0     2     50.000     40.566  16160.325      0.708      3.240      0.685      3.191      0.395      3.426 "SB" 
.L/T       母线I            母线J      ID    支路电流(kA/deg)  百分数  开断短路电流(kA/deg)
.    ---------------- ---------------- ---  -----------------  ------  --------------------
   L "沪宝钢_2" 230.0 "沪宝能__" 230.0 "2"  39.094     82.518   0.964   2.734   87.705
   T "沪宝钢_2" 230.0 "沪宝钢_2" 115.0 "2"   1.570     87.033   0.039  39.722   83.242
"沪宝能__"  230.0     B      0.0     2     50.000     42.189  16806.790      0.667      3.119      0.644      3.071      0.268      3.103 "SB" 
.L/T       母线I            母线J      ID    支路电流(kA/deg)  百分数  开断短路电流(kA/deg)
.    ---------------- ---------------- ---  -----------------  ------  --------------------
   L "沪宝能__" 230.0 "沪宝钢_1" 230.0 "1"   1.560     99.478   0.037  41.269   82.078
   L "沪宝能__" 230.0 "沪宝钢_2" 230.0 "2"   1.539     99.623   0.036  41.289   82.077
   L "沪宝能__" 230.0 "沪新宝__" 230.0 "1"  10.925     84.079   0.259  37.800   82.296
   L "沪宝能__" 230.0 "沪杨行__" 230.0 "1"  14.465     80.657   0.343  38.119   82.917
   L "沪宝能__" 230.0 "沪杨行__" 230.0 "2"  13.963     81.214   0.331  38.333   82.751
"沪宝浏__"  230.0     B      0.0     2     50.000     44.506  17729.913      0.636      2.963      0.618      2.928      0.271      3.351 "SH" 
.L/T       母线I            母线J      ID    支路电流(kA/deg)  百分数  开断短路电流(kA/deg)
.    ---------------- ---------------- ---  -----------------  ------  --------------------
   L "沪宝浏__" 230.0 "沪泰和_F" 230.0 "1"   0.051     89.317   0.001  44.289   81.500
   L "沪宝浏__" 230.0 "沪同济43" 230.0 "1"   0.003    158.248   0.000  44.468   82.119
   L "沪宝浏__" 230.0 "沪同济44" 230.0 "1"   0.003    156.419   0.000  44.467   82.139
   L "沪宝浏__" 230.0 "沪杨行__" 230.0 "1"   8.792     79.280   0.198  43.313   82.457
   L "沪宝浏__" 230.0 "沪杨行__" 230.0 "2"   8.751     83.378   0.197  43.316   82.352
   L "沪宝浏__" 230.0 "沪杨行__" 230.0 "3"   8.887     83.136   0.200  43.293   82.346
   L "沪宝浏__" 230.0 "沪杨行__" 230.0 "4"   8.747     78.908   0.197  43.322   82.476
   L "沪宝浏__" 230.0 "沪一钢47" 230.0 "1"   0.016    150.342   0.000  44.448   82.087
   L "沪宝浏__" 230.0 "沪蕴站__" 230.0 "1"   9.240     84.707   0.208  41.591   81.648
"沪长春__"  230.0     B      0.0     2     50.000     29.332  11685.066      1.026      4.553      0.992      4.493      0.099      2.398 "SJ" 
.L/T       母线I            母线J      ID    支路电流(kA/deg)  百分数  开断短路电流(kA/deg)
.    ---------------- ---------------- ---  -----------------  ------  --------------------
   L "沪长春__" 230.0 "沪港口_2" 230.0 "1"   0.015    142.151   0.000  29.226   76.879
   L "沪长春__" 230.0 "沪瑞金42" 230.0 "1"   0.018    150.766   0.001  29.203   76.401
   L "沪长春__" 230.0 "沪吴二__" 230.0 "1"   7.337     79.413   0.250  26.853   77.431
   L "沪长春__" 230.0 "沪吴二__" 230.0 "2"   5.522     73.566   0.188  27.712   77.916
   L "沪长春__" 230.0 "沪泗泾__" 230.0 "1"   8.163     75.141   0.278  25.564   77.908
   L "沪长春__" 230.0 "沪泗泾__" 230.0 "2"   8.222     75.465   0.280  25.528   77.889
   L "沪长春__" 230.0 "沪漕溪22" 230.0 "1"   0.000    153.471   0.000  29.212   76.423
   L "沪长春__" 230.0 "沪漕溪44" 230.0 "1"   0.002    150.550   0.000  29.258   76.890
"沪长兴B1"  230.0     B      0.0     2     50.000      3.045   1213.143      3.800     45.257      3.766     45.273      0.529 100000.000 "SM" 
.L/T       母线I            母线J      ID    支路电流(kA/deg)  百分数  开断短路电流(kA/deg)
.    ---------------- ---------------- ---  -----------------  ------  --------------------
   T "沪长兴B1" 230.0 "沪长兴Z1" 230.0 "1"   2.866     69.612   0.941   0.278  116.276
   T "沪长兴B1" 230.0 "沪长兴_1"  37.0 "1"   0.181     74.146   0.059   2.866   71.087
   T "沪长兴B1" 230.0 "沪长兴_1" 115.0 "1"   0.000     75.964   0.000   3.045   71.041
"沪长兴B2"  230.0     B      0.0     2     50.000      3.047   1214.023      4.147     45.163      4.110     45.176      0.529 100000.000 "SM" 
.L/T       母线I            母线J      ID    支路电流(kA/deg)  百分数  开断短路电流(kA/deg)
.    ---------------- ---------------- ---  -----------------  ------  --------------------
   T "沪长兴B2" 230.0 "沪长兴F2" 230.0 "2"   2.872     69.524   0.942   0.294  119.493
   T "沪长兴B2" 230.0 "沪长兴_2"  37.0 "2"   0.177     74.783   0.058   2.872   71.122
   T "沪长兴B2" 230.0 "沪长兴_2" 115.0 "2"   0.000     75.964   0.000   3.047   71.108
"沪长兴F1"  230.0     B      0.0     2     50.000     33.983  13537.828      0.725      4.013      0.694      3.938      0.529      3.807 "SM" 
.L/T       母线I            母线J      ID    支路电流(kA/deg)  百分数  开断短路电流(kA/deg)
.    ---------------- ---------------- ---  -----------------  ------  --------------------
   L "沪长兴F1" 230.0 "沪长兴F2" 230.0 "1"  33.312     79.612   0.980   0.406  125.567
   L "沪长兴F1" 230.0 "沪长兴Z1" 230.0 "1"   0.418     93.079   0.012  33.983   79.710
   L "沪长兴F1" 230.0 "沪陈家_Z" 230.0 "2"   0.135     95.692   0.004  33.983   79.714
"沪长兴F2"  230.0     B      0.0     2     50.000     34.410  13708.106      0.724      3.961      0.693      3.885      0.529      3.641 "SM" 
.L/T       母线I            母线J      ID    支路电流(kA/deg)  百分数  开断短路电流(kA/deg)
.    ---------------- ---------------- ---  -----------------  ------  --------------------
   L "沪长兴F2" 230.0 "沪长兴F1" 230.0 "1"   0.680     90.519   0.020  34.128   79.353
   L "沪长兴F2" 230.0 "沪长兴Z2" 230.0 "1"  16.503     79.694   0.480  29.201   80.056
   L "沪长兴F2" 230.0 "沪洲海__" 230.0 "2"  16.938     79.637   0.492  28.893   79.963
   T "沪长兴F2" 230.0 "沪长兴B2" 230.0 "2"   0.168    102.822   0.005  34.195   79.546
"沪长兴Z1"  230.0     B      0.0     2     50.000     33.569  13372.809      0.725      4.064      0.695      3.989      0.530      3.969 "SM" 
.L/T       母线I            母线J      ID    支路电流(kA/deg)  百分数  开断短路电流(kA/deg)
.    ---------------- ---------------- ---  -----------------  ------  --------------------
   L "沪长兴Z1" 230.0 "沪长兴F1" 230.0 "1"  32.640     79.303   0.972  18.825   79.486
   L "沪长兴Z1" 230.0 "沪陈家_Z" 230.0 "1"   0.635     90.363   0.019  33.562   79.587
   T "沪长兴Z1" 230.0 "沪长兴B1" 230.0 "1"   0.171     99.898   0.005  33.357   79.327
"沪长兴Z2"  230.0     B      0.0     2     50.000     34.402  13704.889      0.723      3.961      0.692      3.886      0.530      3.639 "SM" 
.L/T       母线I            母线J      ID    支路电流(kA/deg)  百分数  开断短路电流(kA/deg)
.    ---------------- ---------------- ---  -----------------  ------  --------------------
   L "沪长兴Z2" 230.0 "沪长兴F2" 230.0 "1"  17.318     79.247   0.503  28.934   79.570
   L "沪长兴Z2" 230.0 "沪洲海__" 230.0 "1"  16.950     80.431   0.493  28.882   79.945
"沪长兴_1"  115.0     B      0.0     2     30.000      6.762   1346.913      0.950     10.182      0.942     10.186      0.132 100000.000 "SM" 
.L/T       母线I            母线J      ID    支路电流(kA/deg)  百分数  开断短路电流(kA/deg)
.    ---------------- ---------------- ---  -----------------  ------  --------------------
   T "沪长兴_1" 115.0 "沪长兴B1" 230.0 "1"   6.762     71.572   1.000   0.000   66.241
"沪长兴_2"  115.0     B      0.0     2     30.000      6.767   1347.986      1.037     10.159      1.028     10.162      0.132 100000.000 "SM" 
.L/T       母线I            母线J      ID    支路电流(kA/deg)  百分数  开断短路电流(kA/deg)
.    ---------------- ---------------- ---  -----------------  ------  --------------------
   T "沪长兴_2" 115.0 "沪长兴B2" 230.0 "2"   6.767     71.689   1.000   0.000   65.862
"沪辰塔_1"  230.0     B      0.0     2     50.000     17.961   7155.041      0.855      7.638      0.836      7.601      0.448      6.383 "SJ" 
.L/T       母线I            母线J      ID    支路电流(kA/deg)  百分数  开断短路电流(kA/deg)
.    ---------------- ---------------- ---  -----------------  ------  --------------------
   L "沪辰塔_1" 230.0 "沪辰塔_2" 230.0 "1"  17.912     75.016   0.997   0.449  149.384
   L "沪辰塔_1" 230.0 "沪文祥_F" 230.0 "1"   0.018    141.209   0.001  17.962   75.270
   L "沪辰塔_1" 230.0 "沪文祥_F" 230.0 "2"   0.018    141.233   0.001  17.962   75.270
"沪辰塔_2"  230.0     B      0.0     2     50.000     18.084   7203.979      0.853      7.585      0.834      7.549      0.449      6.346 "SJ" 
.L/T       母线I            母线J      ID    支路电流(kA/deg)  百分数  开断短路电流(kA/deg)
.    ---------------- ---------------- ---  -----------------  ------  --------------------
   L "沪辰塔_2" 230.0 "沪辰塔_1" 230.0 "1"   0.049     79.663   0.003  17.965   73.929
   L "沪辰塔_2" 230.0 "沪练塘__" 230.0 "1"   4.495     74.908   0.249  17.134   75.537
   L "沪辰塔_2" 230.0 "沪练塘__" 230.0 "2"   4.504     74.923   0.249  17.132   75.537
   L "沪辰塔_2" 230.0 "沪练塘__" 230.0 "3"   4.495     74.908   0.249  17.134   75.537
   L "沪辰塔_2" 230.0 "沪练塘__" 230.0 "4"   4.504     74.923   0.249  17.132   75.537
"沪陈家B1"  230.0     B      0.0     2     50.000      2.315    922.032      4.638     59.657      4.599     59.587      0.954 100000.000 "SM" 
.L/T       母线I            母线J      ID    支路电流(kA/deg)  百分数  开断短路电流(kA/deg)
.    ---------------- ---------------- ---  -----------------  ------  --------------------
   T "沪陈家B1" 230.0 "沪陈家_1"  37.0 "1"   0.000     63.435   0.000   2.315   70.504
   T "沪陈家B1" 230.0 "沪陈家_1" 115.0 "1"   0.000     63.435   0.000   2.315   70.504
   T "沪陈家B1" 230.0 "沪陈家_Z" 230.0 "1"   2.315     69.292   1.000   0.147  156.058
"沪陈家B2"  230.0     B      0.0     2     50.000      1.754    698.893     13.799     73.696     13.711     73.612      7.499 100000.000 "SM" 
.L/T       母线I            母线J      ID    支路电流(kA/deg)  百分数  开断短路电流(kA/deg)
.    ---------------- ---------------- ---  -----------------  ------  --------------------
   T "沪陈家B2" 230.0 "沪陈家_2"  37.0 "1"   0.000     75.964   0.000   1.754   74.765
   T "沪陈家B2" 230.0 "沪陈家_2" 115.0 "1"   0.000     75.964   0.000   1.754   74.765
   T "沪陈家B2" 230.0 "沪陈家_F" 230.0 "1"   1.754     72.380   1.000   0.222  154.160
"沪陈家_1"  115.0     B      0.0     2     30.000      5.164   1028.513      1.160     13.360      1.150     13.343      0.239 100000.000 "SM" 
.L/T       母线I            母线J      ID    支路电流(kA/deg)  百分数  开断短路电流(kA/deg)
.    ---------------- ---------------- ---  -----------------  ------  --------------------
   T "沪陈家_1" 115.0 "沪陈家B1" 230.0 "1"   5.164     71.018   1.000   0.000   66.058
"沪陈家_2"  115.0     B      0.0     2     30.000      3.820    760.791      3.450     16.870      3.428     16.849      1.875 100000.000 "SM" 
.L/T       母线I            母线J      ID    支路电流(kA/deg)  百分数  开断短路电流(kA/deg)
.    ---------------- ---------------- ---  -----------------  ------  --------------------
   T "沪陈家_2" 115.0 "沪陈家B2" 230.0 "1"   3.820     75.717   1.000   0.000   64.160
"沪陈家_F"  230.0     B      0.0     2     50.000      6.260   2493.657      5.111     20.476      5.040     20.376      7.499     40.725 "SM" 
.L/T       母线I            母线J      ID    支路电流(kA/deg)  百分数  开断短路电流(kA/deg)
.    ---------------- ---------------- ---  -----------------  ------  --------------------
   L "沪陈家_F" 230.0 "沪中港__" 230.0 "1"   3.142     82.083   0.502   4.993   84.554
   L "沪陈家_F" 230.0 "沪中港__" 230.0 "2"   3.063     83.778   0.489   5.040   83.157
   T "沪陈家_F" 230.0 "沪陈家B2" 230.0 "1"   0.000    154.283   0.000   6.190   81.547
"沪陈家_Z"  230.0     B      0.0     2     50.000     28.178  11225.261      0.859      4.848      0.828      4.773      0.954      4.825 "SM" 
.L/T       母线I            母线J      ID    支路电流(kA/deg)  百分数  开断短路电流(kA/deg)
.    ---------------- ---------------- ---  -----------------  ------  --------------------
   L "沪陈家_Z" 230.0 "沪长兴F1" 230.0 "2"  14.346     77.262   0.509  23.851   79.261
   L "沪陈家_Z" 230.0 "沪长兴Z1" 230.0 "1"  13.581     80.889   0.482  24.238   79.406
   T "沪陈家_Z" 230.0 "沪陈家B1" 230.0 "1"   0.000    156.261   0.000  28.144   79.168
"沪陈太__"  230.0     B      0.0     2     50.000     33.919  13512.212      0.595      4.004      0.580      3.959      0.349      5.094 "SX" 
.L/T       母线I            母线J      ID    支路电流(kA/deg)  百分数  开断短路电流(kA/deg)
.    ---------------- ---------------- ---  -----------------  ------  --------------------
   L "沪陈太__" 230.0 "沪大场__" 230.0 "1"   0.042     71.449   0.001  33.919   79.906
   L "沪陈太__" 230.0 "沪大场__" 230.0 "2"   0.042     71.449   0.001  33.919   79.906
   L "沪陈太__" 230.0 "沪静宜_1" 230.0 "1"   7.977     79.614   0.235  32.260   79.919
   L "沪陈太__" 230.0 "沪静宜_2" 230.0 "2"   7.974     79.618   0.235  32.261   79.918
   L "沪陈太__" 230.0 "沪武威_Z" 230.0 "1"   0.095     96.864   0.003  33.929   79.899
   L "沪陈太__" 230.0 "沪武威_Z" 230.0 "2"   0.095     96.864   0.003  33.929   79.899
   L "沪陈太__" 230.0 "沪徐行12" 230.0 "1"   8.795     79.229   0.259  30.616   80.184
   L "沪陈太__" 230.0 "沪徐行12" 230.0 "2"   8.795     79.229   0.259  30.616   80.184
"沪崇电__"  115.0     B      0.0     2     30.000      5.572   1109.834      2.696     11.579      2.607     11.391      5.976 100000.000 "SM" 
.L/T       母线I            母线J      ID    支路电流(kA/deg)  百分数  开断短路电流(kA/deg)
.    ---------------- ---------------- ---  -----------------  ------  --------------------
   L "沪崇电__" 115.0 "沪中港__" 115.0 "1"   2.213     81.295   0.397   4.328   79.740
   L "沪崇电__" 115.0 "沪中港__" 115.0 "2"   2.213     81.295   0.397   4.328   79.740
   T "沪崇电__" 115.0 "沪崇电16"   6.3 "6"   1.147     74.354   0.206   4.475   83.403
"沪春申__"  230.0     B      0.0     2     50.000     33.921  13513.125      0.822      3.969      0.792      3.912      0.428      3.985 "SJ" 
.L/T       母线I            母线J      ID    支路电流(kA/deg)  百分数  开断短路电流(kA/deg)
.    ---------------- ---------------- ---  -----------------  ------  --------------------
   L "沪春申__" 230.0 "沪龙泉05" 230.0 "1"   0.048    142.080   0.001  33.880   77.015
   L "沪春申__" 230.0 "沪吴二__" 230.0 "1"   5.119     77.992   0.151  32.721   77.313
   L "沪春申__" 230.0 "沪吴二__" 230.0 "2"   5.134     77.843   0.151  32.715   77.321
   L "沪春申__" 230.0 "沪泗泾__" 230.0 "1"  11.870     76.198   0.350  29.420   77.280
   L "沪春申__" 230.0 "沪泗泾__" 230.0 "2"  11.701     76.180   0.345  29.512   77.384
"沪大场__"  230.0     B      0.0     2     50.000     30.048  11970.273      0.664      4.523      0.649      4.478      0.573      6.721 "SX" 
.L/T       母线I            母线J      ID    支路电流(kA/deg)  百分数  开断短路电流(kA/deg)
.    ---------------- ---------------- ---  -----------------  ------  --------------------
   L "沪大场__" 230.0 "沪陈太__" 230.0 "1"  14.983     79.808   0.499  26.963   79.718
   L "沪大场__" 230.0 "沪陈太__" 230.0 "2"  14.983     79.808   0.499  26.963   79.718
"沪大学_1"  230.0     B      0.0     2     50.000     25.456  10140.928      1.077      5.305      1.050      5.259      1.436      9.590 "SJ" 
.L/T       母线I            母线J      ID    支路电流(kA/deg)  百分数  开断短路电流(kA/deg)
.    ---------------- ---------------- ---  -----------------  ------  --------------------
   L "沪大学_1" 230.0 "沪文祥_Z" 230.0 "1"  25.445     77.074   1.000   0.304  143.099
"沪大学_2"  230.0     B      0.0     2     50.000     13.175   5248.583      1.321     10.379      1.302     10.343      1.638     15.140 "SJ" 
.L/T       母线I            母线J      ID    支路电流(kA/deg)  百分数  开断短路电流(kA/deg)
.    ---------------- ---------------- ---  -----------------  ------  --------------------
   L "沪大学_2" 230.0 "沪文祥_F" 230.0 "1"  13.163     75.386   0.999   0.301  147.723
"沪大众_F"  230.0     B      0.0     2     50.000     17.336   6906.112      0.917      7.820      0.902      7.778      0.738      9.999 "SX" 
.L/T       母线I            母线J      ID    支路电流(kA/deg)  百分数  开断短路电流(kA/deg)
.    ---------------- ---------------- ---  -----------------  ------  --------------------
   L "沪大众_F" 230.0 "沪大众_Z" 230.0 "1"   8.649     79.262   0.499  11.545   77.734
   L "沪大众_F" 230.0 "沪新潭__" 230.0 "2"   8.672     78.219   0.500  11.541   78.774
"沪大众_Z"  230.0     B      0.0     2     50.000     17.336   6906.164      0.917      7.820      0.903      7.778      0.740     10.000 "SX" 
.L/T       母线I            母线J      ID    支路电流(kA/deg)  百分数  开断短路电流(kA/deg)
.    ---------------- ---------------- ---  -----------------  ------  --------------------
   L "沪大众_Z" 230.0 "沪大众_F" 230.0 "1"   8.630     77.817   0.498  11.575   78.497
   L "沪大众_Z" 230.0 "沪新潭__" 230.0 "1"   8.693     79.369   0.501  11.524   78.928
"沪东昌71"  230.0     B      0.0     2     50.000     22.209   8847.579      1.098      6.091      1.067      6.023      1.791      7.216 "SL" 
.L/T       母线I            母线J      ID    支路电流(kA/deg)  百分数  开断短路电流(kA/deg)
.    ---------------- ---------------- ---  -----------------  ------  --------------------
   L "沪东昌71" 230.0 "沪源深_Z" 230.0 "1"  22.181     78.653   0.999   0.220  152.521
"沪东昌72"  230.0     B      0.0     2     50.000     27.197  10834.596      0.769      5.061      0.756      5.034      1.394      5.368 "SG" 
.L/T       母线I            母线J      ID    支路电流(kA/deg)  百分数  开断短路电流(kA/deg)
.    ---------------- ---------------- ---  -----------------  ------  --------------------
   L "沪东昌72" 230.0 "沪源深_F" 230.0 "1"  27.168     80.651   0.999   0.157  160.016
"沪东昌88"  230.0     B      0.0     2     50.000     27.275  10865.693      0.949      4.960      0.916      4.887      1.472      3.769 "SL" 
.L/T       母线I            母线J      ID    支路电流(kA/deg)  百分数  开断短路电流(kA/deg)
.    ---------------- ---------------- ---  -----------------  ------  --------------------
   L "沪东昌88" 230.0 "沪银山__" 230.0 "1"  27.220     79.422   0.998   0.269  158.766
"沪奉燃__"  230.0     B      0.0     2     50.000     25.777  10268.761      0.516      5.332      0.498      5.247      0.575      9.099 "SC" 
.L/T       母线I            母线J      ID    支路电流(kA/deg)  百分数  开断短路电流(kA/deg)
.    ---------------- ---------------- ---  -----------------  ------  --------------------
   L "沪奉燃__" 230.0 "沪惠南_1" 230.0 "1"   6.003     77.590   0.233  22.880   75.713
   L "沪奉燃__" 230.0 "沪惠南_1" 230.0 "2"   5.956     77.833   0.231  22.910   75.680
   L "沪奉燃__" 230.0 "沪康桥_2" 230.0 "1"   2.407     77.886   0.093  25.227   76.062
   L "沪奉燃__" 230.0 "沪康桥_2" 230.0 "2"   2.388     78.311   0.093  25.234   76.050
   T "沪奉燃__" 230.0 "沪奉燃11"  15.0 "1"   1.497     77.166   0.058  24.293   76.582
   T "沪奉燃__" 230.0 "沪奉燃12"   6.3 "2"   0.758     70.769   0.029  25.025   76.410
   T "沪奉燃__" 230.0 "沪奉燃21"  15.0 "1"   1.497     77.166   0.058  24.293   76.582
   T "沪奉燃__" 230.0 "沪奉燃22"   6.3 "2"   0.758     70.769   0.029  25.025   76.410
   T "沪奉燃__" 230.0 "沪奉燃31"  15.0 "1"   1.493     73.953   0.058  24.293   76.582
   T "沪奉燃__" 230.0 "沪奉燃32"   6.3 "2"   0.758     70.769   0.029  25.025   76.410
   T "沪奉燃__" 230.0 "沪奉燃41"  15.0 "1"   1.494     70.773   0.058  24.293   76.582
   T "沪奉燃__" 230.0 "沪奉燃42"   6.3 "2"   0.758     70.769   0.029  25.025   76.410
"沪复兴47"  230.0     B      0.0     2     50.000     11.276   4491.939      2.623     12.010      2.604     11.975      1.065     12.665 "SG" 
.L/T       母线I            母线J      ID    支路电流(kA/deg)  百分数  开断短路电流(kA/deg)
.    ---------------- ---------------- ---  -----------------  ------  --------------------
   L "沪复兴47" 230.0 "沪浦建_1" 230.0 "1"  11.248     76.972   0.998   0.208  154.986
"沪复兴48"  230.0     B      0.0     2     50.000     25.701  10238.682      0.853      5.347      0.840      5.320      1.364      8.487 "SQ" 
.L/T       母线I            母线J      ID    支路电流(kA/deg)  百分数  开断短路电流(kA/deg)
.    ---------------- ---------------- ---  -----------------  ------  --------------------
   L "沪复兴48" 230.0 "沪浦建_2" 230.0 "1"  25.673     81.106   0.999   0.126  168.655
"沪干练_F"  230.0     B      0.0     2     50.000     18.060   7194.715      0.836      7.601      0.817      7.565      0.397      6.026 "SJ" 
...